14
Lattice="17.572400000000002 0.0 0.0 0.0 14.3161 0.0 0.0 0.0 10.0002" Properties=species:S:1:pos:R:3 pbc="T T T"
C        8.87580000       7.15810000       5.00010000
C        8.17830000       8.36610000       5.00010000
C        8.17830000       5.95000000       5.00010000
C        6.78350000       8.36630000       5.00010000
C        6.78340000       5.95020000       5.00010000
C        6.08610000       7.15830000       5.00010000
C       10.30480000       7.15810000       5.00010000
C       11.50750000       7.15840000       5.00010000
H        8.70750000       9.31610000       5.00000000
H        8.70750000       5.00000000       5.00010000
H        6.24030000       9.30680000       5.00010000
H        6.24010000       5.00980000       5.00010000
H        5.00000000       7.15830000       5.00020000
H       12.57240000       7.15850000       5.00020000
